goiania_leste_dss/TR2/CTMT_5001997.dss
! ==============================================================================
! ALIMENTADOR CTMT_5001997 - GOIANIA LESTE-18
! Subestacao: Trafo TR2 (GOL-S-TRF-TR2) | Barra MT: 4629 -> PAC_INI: 84804545001997
! ==============================================================================

! 1. Disjuntor de Saida MT do Alimentador
new line.DJ_5001997 phases=3 bus1=4629 bus2=84804545001997 switch=y r1=1e-4 x1=1e-4 length=0.001 units=km

! 2. Linhas de Media Tensao (MT)
new line.52883028 phases=3 bus1=80501105001997.1.2.3 bus2=80500845001997.1.2.3 r1=0.365 x1=0.28 length=0.016592 units=km normamps=345.0
new line.52883029 phases=3 bus1=80472295001997.1.2.3 bus2=80472155001997.1.2.3 r1=0.365 x1=0.28 length=0.03339 units=km normamps=345.0
new line.52883036 phases=3 bus1=80500805001997B.1.2.3 bus2=80500825001997.1.2.3 r1=0.365 x1=0.28 length=0.017848 units=km normamps=345.0
new line.52883037 phases=3 bus1=80500815001997.1.2.3 bus2=80500805001997.1.2.3 r1=0.188 x1=0.26 length=0.008432 units=km normamps=525.0
new line.52883038 phases=3 bus1=80472155001997.1.2.3 bus2=80500835001997.1.2.3 r1=0.365 x1=0.28 length=0.030075 units=km normamps=345.0
new line.52883039 phases=3 bus1=80472315001997.1.2.3 bus2=80472305001997.1.2.3 r1=0.365 x1=0.28 length=0.018799 units=km normamps=345.0
new line.52883040 phases=3 bus1=80472305001997.1.2.3 bus2=80472345001997.1.2.3 r1=0.365 x1=0.28 length=0.017629 units=km normamps=345.0
new line.52883041 phases=3 bus1=80472345001997.1.2.3 bus2=80472365001997.1.2.3 r1=0.365 x1=0.28 length=0.019385 units=km normamps=345.0
new line.52883042 phases=3 bus1=80472365001997.1.2.3 bus2=80472375001997.1.2.3 r1=0.365 x1=0.28 length=0.021953 units=km normamps=345.0
new line.52883043 phases=3 bus1=80472375001997.1.2.3 bus2=80472385001997.1.2.3 r1=0.365 x1=0.28 length=0.024414 units=km normamps=345.0
new line.52883044 phases=3 bus1=80472385001997.1.2.3 bus2=80472165001997.1.2.3 r1=0.365 x1=0.28 length=0.017364 units=km normamps=345.0
new line.52883045 phases=3 bus1=80472165001997.1.2.3 bus2=80472175001997.1.2.3 r1=0.365 x1=0.28 length=0.012221 units=km normamps=345.0
new line.52883046 phases=3 bus1=80472175001997.1.2.3 bus2=80472395001997.1.2.3 r1=0.365 x1=0.28 length=0.014321 units=km normamps=345.0
new line.52883047 phases=3 bus1=80472395001997.1.2.3 bus2=80472405001997.1.2.3 r1=0.365 x1=0.28 length=0.013281 units=km normamps=345.0
new line.52883049 phases=3 bus1=80472185001997.1.2.3 bus2=80472295001997.1.2.3 r1=0.365 x1=0.28 length=0.026842 units=km normamps=345.0
new line.52883050 phases=3 bus1=80501055001997.1.2.3 bus2=95310045001997.1.2.3 r1=0.365 x1=0.28 length=0.006906 units=km normamps=345.0
new line.52883053 phases=3 bus1=80500895001997.1.2.3 bus2=80501085001997.1.2.3 r1=0.188 x1=0.26 length=0.020118 units=km normamps=525.0
new line.52883054 phases=3 bus1=80500905001997.1.2.3 bus2=80500895001997.1.2.3 r1=0.188 x1=0.26 length=0.014615 units=km normamps=525.0
new line.52883056 phases=3 bus1=80500815001997.1.2.3 bus2=80500915001997.1.2.3 r1=0.188 x1=0.26 length=0.017823 units=km normamps=525.0
new line.52883057 phases=3 bus1=80500845001997.1.2.3 bus2=95320485001997.1.2.3 r1=0.365 x1=0.28 length=0.006379 units=km normamps=345.0
new line.52883058 phases=3 bus1=80500855001997.1.2.3 bus2=80500845001997.1.2.3 r1=0.365 x1=0.28 length=0.031501 units=km normamps=345.0
new line.52883059 phases=3 bus1=80500865001997.1.2.3 bus2=80500855001997.1.2.3 r1=0.365 x1=0.28 length=0.029503 units=km normamps=345.0
new line.52883060 phases=3 bus1=80500875001997.1.2.3 bus2=80500865001997.1.2.3 r1=0.365 x1=0.28 length=0.035716 units=km normamps=345.0
new line.52883061 phases=3 bus1=80500885001997.1.2.3 bus2=80500875001997.1.2.3 r1=0.365 x1=0.28 length=0.031501 units=km normamps=345.0
new line.52883062 phases=3 bus1=80500825001997.1.2.3 bus2=80500885001997.1.2.3 r1=0.365 x1=0.28 length=0.02629 units=km normamps=345.0
new line.52883063 phases=3 bus1=80500835001997.1.2.3 bus2=80500925001997.1.2.3 r1=0.365 x1=0.28 length=0.01578 units=km normamps=345.0
new line.52883064 phases=3 bus1=80501045001997.1.2.3 bus2=80500935001997.1.2.3 r1=0.365 x1=0.28 length=0.004163 units=km normamps=345.0
new line.52883065 phases=3 bus1=80501045001997.1.2.3 bus2=80472155001997.1.2.3 r1=0.365 x1=0.28 length=0.016715 units=km normamps=345.0
new line.53039564 phases=3 bus1=80500905001997.1.2.3 bus2=80500915001997.1.2.3 r1=0.188 x1=0.26 length=0.019142 units=km normamps=525.0
new line.53753353 phases=3 bus1=80472165001997B.1.2.3 bus2=80472425001997.1.2.3 r1=0.732 x1=0.31 length=0.013916 units=km normamps=225.0
new line.53950920 phases=3 bus1=80501085001997.1.2.3 bus2=84804545001997.1.2.3 r1=0.188 x1=0.26 length=0.001156 units=km normamps=525.0
new line.54437639 phases=3 bus1=80472425001997.1.2.3 bus2=88651345001997.1.2.3 r1=0.732 x1=0.31 length=0.008437 units=km normamps=225.0
new line.54437646 phases=3 bus1=80501055001997.1.2.3 bus2=88651365001997.1.2.3 r1=0.365 x1=0.28 length=0.00686 units=km normamps=345.0
new line.55098885 phases=3 bus1=80472185001997.1.2.3 bus2=93763485001997.1.2.3 r1=0.365 x1=0.28 length=0.00636 units=km normamps=345.0
new line.55098887 phases=3 bus1=93763475001997.1.2.3 bus2=80472405001997.1.2.3 r1=0.365 x1=0.28 length=0.010212 units=km normamps=345.0
new line.55149634 phases=3 bus1=94178735001997.1.2.3 bus2=93763475001997.1.2.3 r1=0.365 x1=0.28 length=0.009397 units=km normamps=345.0
new line.55149635 phases=3 bus1=93763485001997.1.2.3 bus2=94178735001997.1.2.3 r1=0.365 x1=0.28 length=0.011563 units=km normamps=345.0
new line.55291914 phases=3 bus1=95310045001997.1.2.3 bus2=80472315001997.1.2.3 r1=0.365 x1=0.28 length=0.006496 units=km normamps=345.0
new line.55293385 phases=3 bus1=95320475001997B.1.2.3 bus2=95320495001997.1.2.3 r1=0.365 x1=0.28 length=0.009157 units=km normamps=345.0
new line.55293387 phases=3 bus1=95320485001997.1.2.3 bus2=95320475001997.1.2.3 r1=0.365 x1=0.28 length=0.008974 units=km normamps=345.0
new line.55293389 phases=3 bus1=95320495001997.1.2.3 bus2=80500835001997.1.2.3 r1=0.365 x1=0.28 length=0.010241 units=km normamps=345.0
new line.55293393 phases=3 bus1=95320485001997.1.2.3 bus2=95320505001997.1.2.3 r1=0.236 x1=0.27 length=0.006397 units=km normamps=456.0
new line.55293394 phases=3 bus1=95320505001997B.1.2.3 bus2=95320525001997.1.2.3 r1=0.236 x1=0.27 length=0.009638 units=km normamps=456.0
new line.55293395 phases=3 bus1=95320525001997.1.2.3 bus2=95320515001997.1.2.3 r1=0.236 x1=0.27 length=0.010063 units=km normamps=456.0
new line.55293396 phases=3 bus1=95320515001997.1.2.3 bus2=95320495001997.1.2.3 r1=0.236 x1=0.27 length=0.007701 units=km normamps=456.0
new line.88888839853 phases=3 bus1=I888888315475001997.1.2.3 bus2=I888888315485001997.1.2.3 r1=1.551 x1=0.47 length=0.001 units=km normamps=125.0
new line.88888839869 phases=3 bus1=I888888103655001997B.1.2.3 bus2=I888888315345001997.1.2.3 r1=1.551 x1=0.47 length=0.001 units=km normamps=125.0
new line.88888839854 phases=3 bus1=I888888103635001997.1.2.3 bus2=I888888315475001997.1.2.3 r1=1.551 x1=0.47 length=0.001 units=km normamps=125.0
new line.88888839851 phases=3 bus1=I888888315485001997.1.2.3 bus2=I888888315515001997.1.2.3 r1=1.551 x1=0.47 length=0.001 units=km normamps=125.0
new line.88888839850 phases=3 bus1=I888888315345001997.1.2.3 bus2=INT114955001997.1.2.3 r1=1.551 x1=0.47 length=0.001 units=km normamps=125.0
new line.88888860320 phases=3 bus1=I888888454225001997.1.2.3 bus2=84804545001997.1.2.3 r1=1.551 x1=0.47 length=0.001 units=km normamps=125.0
new line.88888863660 phases=3 bus1=I888888477955001997B.1.2.3 bus2=I888888103655001997.1.2.3 r1=1.551 x1=0.47 length=0.001 units=km normamps=125.0
new line.88888860319 phases=3 bus1=I888888103635001997.1.2.3 bus2=I888888454225001997.1.2.3 r1=1.551 x1=0.47 length=0.001 units=km normamps=125.0
new line.88888863661 phases=3 bus1=I888888315485001997.1.2.3 bus2=I888888477955001997B.1.2.3 r1=1.551 x1=0.47 length=0.001 units=km normamps=125.0
new line.88888863659 phases=3 bus1=I888888315515001997.1.2.3 bus2=I888888477945001997.1.2.3 r1=1.551 x1=0.47 length=0.001 units=km normamps=125.0

! 3. Chaves Seccionadoras MT
new line.SC_5271511 phases=3 bus1=80500805001997.1.2.3 bus2=80500805001997B.1.2.3 switch=y r1=1e-4 x1=1e-4 length=0.001 units=km
new line.SC_5334443 phases=3 bus1=80472165001997.1.2.3 bus2=80472165001997B.1.2.3 switch=y r1=1e-4 x1=1e-4 length=0.001 units=km
new line.SC_5723255 phases=3 bus1=95320475001997.1.2.3 bus2=95320475001997B.1.2.3 switch=y r1=1e-4 x1=1e-4 length=0.001 units=km
new line.SC_5723256 phases=3 bus1=95320505001997.1.2.3 bus2=95320505001997B.1.2.3 switch=y r1=1e-4 x1=1e-4 length=0.001 units=km
open line.SC_5723256 1
new line.SC_SA0002837 phases=3 bus1=SA0002837.1.2.3 bus2=SA0002837B.1.2.3 switch=y r1=1e-4 x1=1e-4 length=0.001 units=km
new line.SC_SA0002836 phases=3 bus1=SA0002836.1.2.3 bus2=SA0002836B.1.2.3 switch=y r1=1e-4 x1=1e-4 length=0.001 units=km
new line.SC_DA0000433 phases=3 bus1=I888888103655001997.1.2.3 bus2=I888888103655001997B.1.2.3 switch=y r1=1e-4 x1=1e-4 length=0.001 units=km

! 5. Transformadores MT/BT de Distribuicao
new transformer.UNTRMT_5270984 phases=3 windings=2 %r=1.25 xhl=4.32 kva=800.0
~ wdg=1 bus=80472425001997.1.2.3 conn=delta kv=13.8
~ wdg=2 bus=80472425270984.1.2.3.0 conn=wye kv=0.38

new transformer.UNTRMT_5270984_2 phases=3 windings=2 %r=1.15 xhl=5.89 kva=800.0
~ wdg=1 bus=80472425001997.1.2.3 conn=delta kv=13.8
~ wdg=2 bus=80472425270984_2.1.2.3.0 conn=wye kv=0.38

new transformer.UNTRMT_5271513 phases=3 windings=2 %r=1.15 xhl=5.89 kva=500.0
~ wdg=1 bus=80501055001997.1.2.3 conn=delta kv=13.8
~ wdg=2 bus=80501055271513.1.2.3.0 conn=wye kv=0.38

new transformer.UNTRMT_5271517 phases=3 windings=2 %r=1.25 xhl=4.32 kva=300.0
~ wdg=1 bus=80500925001997.1.2.3 conn=delta kv=13.8
~ wdg=2 bus=80500925271517.1.2.3.0 conn=wye kv=0.38

new transformer.UNTRMT_5271518 phases=3 windings=2 %r=1.46 xhl=3.18 kva=112.0
~ wdg=1 bus=80500935001997.1.2.3 conn=delta kv=13.8
~ wdg=2 bus=80500935271518.1.2.3.0 conn=wye kv=0.38

new transformer.UNTRMT_5271519 phases=3 windings=2 %r=1.46 xhl=3.18 kva=112.0
~ wdg=1 bus=80501105001997.1.2.3 conn=delta kv=13.8
~ wdg=2 bus=80501105271519.1.2.3.0 conn=wye kv=0.38

new transformer.UNTRMT_5681863 phases=3 windings=2 %r=1.46 xhl=3.18 kva=112.0
~ wdg=1 bus=94178735001997.1.2.3 conn=delta kv=13.8
~ wdg=2 bus=94178735681863.1.2.3.0 conn=wye kv=0.38

! 7. Cargas Consumidoras de Baixa Tensao (BT)
new load.UCBT_303aade9735800cc305f1e72b4e53235edb65caf393a734938935cb94e0611c8 phases=3 model=1 bus=80500935271518.1.2.3 kv=0.38 conn=wye kw=55.0 daily=SP-Tipo1 vminpu=0.85
new load.UCBT_289488ab778a7df09be9c3bddfb2c181e3caa8326ca3a87f36ccf8b6a1d6a700 phases=1 model=1 bus=80501105271519.1.0 kv=0.22 conn=wye kw=9.0 daily=SP-Tipo1 vminpu=0.85
new load.UCBT_87dac570b37e86684abdfa76220d550b23ac25edbf6561d1d04f4fe0d4fcb455 phases=3 model=1 bus=80500925271517.1.2.3 kv=0.38 conn=wye kw=55.0 daily=SP-Tipo1 vminpu=0.85
new load.UCBT_e440c16ee92c760002d1c205df5d089993cda444903ed92d35d93b2140677b51 phases=1 model=1 bus=80501105271519.3.0 kv=0.22 conn=wye kw=6.0 daily=COM-Tipo2 vminpu=0.85

! 8. Cargas Consumidoras de Media Tensao (MT)
new load.UCMT_0c3a6de241f43cfeda5770dc69430f061ec9e273a1cb551adf318f21f4c312a8 phases=3 model=1 bus=80472425001997.1.2.3 kv=13.8 kw=800.0 daily=MT-Tipo1 vminpu=0.85

! 10. Coordenadas Geograficas dos Barramentos deste Alimentador
MakeBusList
SetBusXY Bus=80501105001997 X=-49.235676 Y=-16.686459
SetBusXY Bus=80500845001997 X=-49.235809 Y=-16.686529
SetBusXY Bus=80472295001997 X=-49.235621 Y=-16.687375
SetBusXY Bus=80472155001997 X=-49.235645 Y=-16.687081
SetBusXY Bus=80500805001997B X=-49.236189 Y=-16.685051
SetBusXY Bus=80500825001997 X=-49.23615 Y=-16.685204
SetBusXY Bus=80500815001997 X=-49.236208 Y=-16.684978
SetBusXY Bus=80500805001997 X=-49.236189 Y=-16.685051
SetBusXY Bus=80500835001997 X=-49.235732 Y=-16.686827
SetBusXY Bus=80472315001997 X=-49.23431 Y=-16.688089
SetBusXY Bus=80472305001997 X=-49.23447 Y=-16.688028
SetBusXY Bus=80472345001997 X=-49.2345 Y=-16.687882
SetBusXY Bus=80472365001997 X=-49.234515 Y=-16.687712
SetBusXY Bus=80472375001997 X=-49.234529 Y=-16.687519
SetBusXY Bus=80472385001997 X=-49.234535 Y=-16.687304
SetBusXY Bus=80472165001997 X=-49.234683 Y=-16.687231
SetBusXY Bus=80472175001997 X=-49.234798 Y=-16.687248
SetBusXY Bus=80472395001997 X=-49.234928 Y=-16.687264
SetBusXY Bus=80472405001997 X=-49.235049 Y=-16.687276
SetBusXY Bus=80472185001997 X=-49.235386 Y=-16.687337
SetBusXY Bus=80501055001997 X=-49.234359 Y=-16.688207
SetBusXY Bus=95310045001997 X=-49.234324 Y=-16.688156
SetBusXY Bus=80500895001997 X=-49.23577 Y=-16.684829
SetBusXY Bus=80501085001997 X=-49.235586 Y=-16.684813
SetBusXY Bus=80500905001997 X=-49.235902 Y=-16.684852
SetBusXY Bus=80500915001997 X=-49.236073 Y=-16.68489
SetBusXY Bus=95320485001997 X=-49.2358 Y=-16.686585
SetBusXY Bus=80500855001997 X=-49.235877 Y=-16.686259
SetBusXY Bus=80500865001997 X=-49.235945 Y=-16.686006
SetBusXY Bus=80500875001997 X=-49.236023 Y=-16.6857
SetBusXY Bus=80500885001997 X=-49.236091 Y=-16.685429
SetBusXY Bus=80500925001997 X=-49.235623 Y=-16.686735
SetBusXY Bus=80501045001997 X=-49.235552 Y=-16.68697
SetBusXY Bus=80500935001997 X=-49.235525 Y=-16.686944
SetBusXY Bus=80472165001997B X=-49.234696 Y=-16.687238
SetBusXY Bus=80472425001997 X=-49.234705 Y=-16.687361
SetBusXY Bus=84804545001997 X=-49.235576 Y=-16.684812
SetBusXY Bus=88651345001997 X=-49.23469 Y=-16.687434
SetBusXY Bus=88651365001997 X=-49.234306 Y=-16.688239
SetBusXY Bus=93763485001997 X=-49.235328 Y=-16.687332
SetBusXY Bus=93763475001997 X=-49.235142 Y=-16.687291
SetBusXY Bus=94178735001997 X=-49.235227 Y=-16.687304
SetBusXY Bus=95320475001997B X=-49.235777 Y=-16.686661
SetBusXY Bus=95320495001997 X=-49.235757 Y=-16.68674
SetBusXY Bus=95320475001997 X=-49.235777 Y=-16.686661
SetBusXY Bus=95320505001997 X=-49.235858 Y=-16.686592
SetBusXY Bus=95320505001997B X=-49.235858 Y=-16.686592
SetBusXY Bus=95320525001997 X=-49.235845 Y=-16.686676
SetBusXY Bus=95320515001997 X=-49.235824 Y=-16.686762
SetBusXY Bus=I888888315475001997 X=-49.235689 Y=-16.6847
SetBusXY Bus=I888888315485001997 X=-49.235668 Y=-16.684695
SetBusXY Bus=I888888103655001997B X=-49.23554 Y=-16.684679
SetBusXY Bus=I888888315345001997 X=-49.235486 Y=-16.684672
SetBusXY Bus=I888888103635001997 X=-49.235684 Y=-16.684772
SetBusXY Bus=I888888315515001997 X=-49.235675 Y=-16.684652
SetBusXY Bus=INT114955001997 X=-49.235464 Y=-16.68467
SetBusXY Bus=I888888454225001997 X=-49.235595 Y=-16.684763
SetBusXY Bus=I888888477955001997B X=-49.235633 Y=-16.684691
SetBusXY Bus=I888888103655001997 X=-49.23554 Y=-16.684679
SetBusXY Bus=I888888477945001997 X=-49.235639 Y=-16.684647
